/*--------------------------------*- C++ -*----------------------------------*\
| =========                 |                                                 |
| \\      /  F ield         | OpenFOAM: The Open Source CFD Toolbox           |
|  \\    /   O peration     | Version:  1.5                                   |
|   \\  /    A nd           | Web:      http://www.OpenFOAM.org               |
|    \\/     M anipulation  |                                                 |
\*---------------------------------------------------------------------------*/
FoamFile
{
    version     2.0;
    format      ascii;
    class       volScalarField;
    location    "0";
    object      epsilon;
}
// * * * * * * * * * * * * * * * * * * * * * * * * * * * * * * * * * * * * * //

dimensions      [0 2 -3 0 0 0 0];

internalField   uniform 5.2e-4;

boundaryField
{
    testsurface
    {
        type epsilonWallFunction;
    }
    inlet
    {
        type  fixedValue;
        value $internalField;
    }
    outlet
    {
        type inletOutlet;
        inletValue $internalField;
        value $internalField;
//        
    }
    wallright
    {
        type inletOutlet;
        inletValue $internalField;
        value $internalField;
//        type slip;
    }
    wallleft
    {
        type inletOutlet;
        inletValue $internalField;
        value $internalField;
//        type slip;
    }
    walltop
    {
        type inletOutlet;
        inletValue $internalField;
        value $internalField;
//        type slip;
    }
    wallbottom
    {
        type inletOutlet;
        inletValue $internalField;
        value $internalField;
//        type slip;
    }

}


// ************************************************************************* //

