FoamFile
{
    version 2.0;
    format ascii;
    class dictionary;
    location system;
    object controlDict;
}

startFrom latestTime;
startTime 0;
stopAt endTime;
endTime 200;
deltaT 1;
writeControl timeStep;
writeInterval 100;
purgeWrite 0;
writeFormat binary;
writePrecision 6;
writeCompression uncompressed;
timeFormat general;
timePrecision 6;
graphFormat raw;
runTimeModifiable yes;

functions
{
    #include "forces"
}
