FoamFile
{
    version 2.0;
    format ascii;
    class dictionary;
    location system;
    object snappyHexMeshDict;
}

castellatedMesh true;
snap true;
addLayers true;

geometry
{
    testsurface.stl
    {
        type triSurfaceMesh;
        //scale 0.100;
        name testsurface;
    }

//    refinementBox
//    {
//        type searchableBox;
//        min (-2 -2 -2);
//        max ( 2  2  2);
//    }
}

castellatedMeshControls
{
    features
    (
        {
            file "testsurface.eMesh";
            level 8;
        }
    );
    refinementSurfaces
    {
        testsurface
        {
            level (8 8);
        }
    }

    refinementRegions
    {
//        testsurface
//        {
//            mode distance;
//            levels ((1.0 2));
//        }

//        refinementBox
//        {
//            mode inside;
//            levels ((1e15 2));
//        }
    }

    locationInMesh ( -0.9 -0.9 0.9);
    maxLocalCells 15000000;
    maxGlobalCells 30000000;
    minRefinementCells 0;
    nCellsBetweenLevels 1;
    resolveFeatureAngle 30;
    allowFreeStandingZoneFaces false;
}

snapControls
{
    nSolveIter 60;
    nSmoothPatch 4;
    tolerance 4.0;
    nRelaxIter 5;
    nFeatureSnapIter 10;
}

// Settings for the layer addition.
addLayersControls
{
 relativeSizes true;
 //relativeSizes false;

 // Per final patch (so not geometry!) the layer information
 layers
 {
  testsurface {nSurfaceLayers 1;}
 }

 // Expansion factor for layer mesh
 expansionRatio 1.0;

 //- Wanted thickness of final added cell layer. If multiple layers
 // is the
 // thickness of the layer furthest away from the wall.
 // Relative to undistorted size of cell outside layer.

 //finalLayerThickness 0.001; //absolute
 finalLayerThickness 2.0; //relative

 //- Minimum thickness of cell layer. If for any reason layer
 // cannot be above minThickness do not add layer.
 // Relative to undistorted size of cell outside layer.

 //minThickness 0.010; //absolute
 minThickness 2.0; //relative

 //- If points get not extruded do nGrow layers of connected faces that are
 // also not grown. This helps convergence of the layer addition process
 // close to features.
 nGrow 0; //5


 // Advanced settings

 //- When not to extrude surface. 0 is flat surface, 90 is when two faces
 // make straight angle.

 //featureAngle 15;
 featureAngle 180;

 //- Maximum number of snapping relaxation iterations. Should stop
 // before upon reaching a correct mesh.
 nRelaxIter 3;

 // Number of smoothing iterations of surface normals
 nSmoothSurfaceNormals 1;

 // Number of smoothing iterations of interior mesh movement direction
 nSmoothNormals 3;

 // Smooth layer thickness over surface patches
 nSmoothThickness 10;

 // Stop layer growth on highly warped cells

 //maxFaceThicknessRatio 0.0025; //absolute
 maxFaceThicknessRatio 1.0; //relative

 // Reduce layer growth where ratio thickness to medial
 // distance is large
 //maxThicknessToMedialRatio 0.0015; //absolute
 maxThicknessToMedialRatio 1.0; //relative

 // Angle used to pick up medial axis points
 minMedianAxisAngle 130;

 // Create buffer region for new layer terminations
 nBufferCellsNoExtrude 0;

 // Overall max number of layer addition iterations
 nLayerIter 50;
}



// Generic mesh quality settings. At any undoable phase these determine
// where to undo.
meshQualityControls
{
 //- Maximum non-orthogonality allowed. Set to 180 to disable.
 maxNonOrtho 65;

 //- Max skewness allowed. Set to <0 to disable.
 maxBoundarySkewness 20;
 maxInternalSkewness 4;

 //- Max concaveness allowed. Is angle (in degrees) below which concavity
 // is allowed. 0 is straight face, <0 would be convex face.
 // Set to 180 to disable.
 maxConcave 80;

 //- Minimum projected area v.s. actual area. Set to -1 to disable.
 minFlatness 0.5;

 //- Minimum pyramid volume. Is absolute volume of cell pyramid.
 // Set to very negative number (e.g. -1E30) to disable.
 minVol 1e-13;

 //- Minimum face area. Set to <0 to disable.
 minArea -1;

 //- Minimum face twist. Set to <-1 to disable. dot product of face normal
 //- and face centre triangles normal
 minTwist 0.02;

 //- minimum normalised cell determinant
 //- 1 = hex, <= 0 = folded or flattened illegal cell
 minDeterminant 0.001;

 //- minFaceWeight (0 -> 0.5)
 minFaceWeight 0.02;

 //- minVolRatio (0 -> 1)
 minVolRatio 0.01;

 //must be >0 for Fluent compatibility
 minTriangleTwist -1;

 minTetQuality -1e30;

 // Advanced

 //- Number of error distribution iterations
 nSmoothScale 4;
 //- amount to scale back displacement at error points
 errorReduction 0.75;
 relaxed
 {
    maxNonOrtho 75;
 }
}


// Advanced

// Flags for optional output
// 0 : only write final meshes
// 1 : write intermediate meshes
// 2 : write volScalarField with cellLevel for postprocessing
// 4 : write current intersections as .obj files
debug 0;


// Merge tolerance. Is fraction of overall bounding box of initial mesh.
// Note: the write tolerance needs to be higher than this.
mergeTolerance 1E-6;

